@<TRIPOS>MOLECULE
FAP
   25    24     1     0     0
SMALL
resp


@<TRIPOS>ATOM
      1 P1           0.2060    -0.1200     0.0790 p5         1 FAP       0.702259
      2 F1          -0.0250     0.2390     1.6770 f          1 FAP      -0.302394
      3 F2           0.4350    -0.4680    -1.5260 f          1 FAP      -0.302394
      4 F3           0.8990    -1.5680     0.5220 f          1 FAP      -0.302394
      5 F4          -2.3460    -0.7050     0.9740 f          1 FAP      -0.148602
      6 F5          -2.1130    -0.7390    -1.2200 f          1 FAP      -0.148602
      7 F6           0.2420     2.6260     0.1510 f          1 FAP      -0.148602
      8 F7          -0.6700     1.8610    -1.7090 f          1 FAP      -0.148602
      9 F8           2.2760     1.3800     1.2000 f          1 FAP      -0.148602
     10 F9           2.1810     1.4560    -1.0070 f          1 FAP      -0.148602
     11 F10         -1.1340    -3.0990     1.1820 f          1 FAP      -0.171758
     12 F11         -2.7640    -3.0470    -0.2450 f          1 FAP      -0.171758
     13 F12         -0.7190    -3.1460    -0.9620 f          1 FAP      -0.171758
     14 F13         -3.0220     1.5190    -0.3910 f          1 FAP      -0.171758
     15 F14         -2.0820     2.0190     1.5090 f          1 FAP      -0.171758
     16 F15         -2.1160     3.4610    -0.1120 f          1 FAP      -0.171758
     17 F16          3.3770    -1.0410     1.1350 f          1 FAP      -0.171758
     18 F17          3.1200    -1.2020    -1.0260 f          1 FAP      -0.171758
     19 F18          4.3490     0.3740    -0.1850 f          1 FAP      -0.171758
     20 C1          -1.4920    -1.0630    -0.0390 c3         1 FAP       0.034513
     21 C2          -0.5990     1.6610    -0.3590 c3         1 FAP       0.034513
     22 C3           2.0120     0.6380     0.0820 c3         1 FAP       0.034513
     23 C4          -1.4990    -2.6100    -0.0130 c3         1 FAP       0.512940
     24 C5          -1.9790     2.1410     0.1790 c3         1 FAP       0.512940
     25 C6           3.2110    -0.3450    -0.0000 c3         1 FAP       0.512940
@<TRIPOS>BOND
     1     1     2 1   
     2     1     3 1   
     3     1     4 1   
     4     1    20 1   
     5     1    21 1   
     6     1    22 1   
     7     5    20 1   
     8     6    20 1   
     9     7    21 1   
    10     8    21 1   
    11     9    22 1   
    12    10    22 1   
    13    11    23 1   
    14    12    23 1   
    15    13    23 1   
    16    14    24 1   
    17    15    24 1   
    18    16    24 1   
    19    17    25 1   
    20    18    25 1   
    21    19    25 1   
    22    20    23 1   
    23    21    24 1   
    24    22    25 1   
@<TRIPOS>SUBSTRUCTURE
     1 FAP         1 TEMP              0 ****  ****    0 ROOT
