@<TRIPOS>MOLECULE
BET
   21    20     1     0     0
SMALL
resp


@<TRIPOS>ATOM
      1 S1           1.1500     0.8510    -0.4440 s6         1 BET       0.995023
      2 S2          -1.1500    -0.8490    -0.4460 s6         1 BET       0.995023
      3 F1           2.0270    -1.5980     0.1460 f          1 BET      -0.097283
      4 F2           3.0730    -0.6280    -1.5270 f          1 BET      -0.097283
      5 F3          -3.0730     0.6330    -1.5250 f          1 BET      -0.097283
      6 F4          -2.0280     1.5980     0.1520 f          1 BET      -0.097283
      7 F5           4.7090    -0.9010     0.4970 f          1 BET      -0.149388
      8 F6           4.1470     1.1960     0.3710 f          1 BET      -0.149388
      9 F7           3.3010    -0.0710     1.9290 f          1 BET      -0.149388
     10 F8          -4.1460    -1.1980     0.3670 f          1 BET      -0.149388
     11 F9          -3.3010     0.0650     1.9290 f          1 BET      -0.149388
     12 F10         -4.7090     0.8990     0.4990 f          1 BET      -0.149388
     13 O1           1.6790     1.8460    -1.3810 o          1 BET      -0.530913
     14 O2           0.8830     1.2500     0.9450 o          1 BET      -0.530913
     15 O3          -1.6790    -1.8420    -1.3870 o          1 BET      -0.530913
     16 O4          -0.8830    -1.2520     0.9410 o          1 BET      -0.530913
     17 N1          -0.0000     0.0020    -1.2040 n2         1 BET      -0.620252
     18 C1           2.5330    -0.4270    -0.3010 c3         1 BET       0.041150
     19 C2          -2.5340     0.4280    -0.3000 c3         1 BET       0.041150
     20 C3           3.6840    -0.0310     0.6500 c3         1 BET       0.478509
     21 C4          -3.6840     0.0290     0.6490 c3         1 BET       0.478509
@<TRIPOS>BOND
     1     1    13 1   
     2     1    14 1   
     3     1    17 1   
     4     1    18 1   
     5     2    15 1   
     6     2    16 1   
     7     2    17 1   
     8     2    19 1   
     9     3    18 1   
    10     4    18 1   
    11     5    19 1   
    12     6    19 1   
    13     7    20 1   
    14     8    20 1   
    15     9    20 1   
    16    10    21 1   
    17    11    21 1   
    18    12    21 1   
    19    18    20 1   
    20    19    21 1   
@<TRIPOS>SUBSTRUCTURE
     1 BET         1 TEMP              0 ****  ****    0 ROOT
