@<TRIPOS>MOLECULE
BMI
   25    25     1     0     0
SMALL
resp


@<TRIPOS>ATOM
      1 N1           0.3510    -0.7570    -0.3170 na         1 BMI       0.169625
      2 N2           2.1900     0.3700     0.0030 na         1 BMI       0.304225
      3 C1          -0.9310    -1.2190    -0.9030 c3         1 BMI      -0.356664
      4 C2          -2.1560    -0.7340    -0.1200 c3         1 BMI      -0.027069
      5 C3          -2.3560     0.7870    -0.1200 c3         1 BMI       0.093876
      6 C4           1.1390     0.2050    -0.8100 c2         1 BMI      -0.169229
      7 C5           0.9170    -1.2210     0.8560 c2         1 BMI      -0.141624
      8 C6           2.0680    -0.5190     1.0560 c2         1 BMI      -0.243360
      9 C7          -3.6310     1.2080     0.6190 c3         1 BMI      -0.343260
     10 C8           3.2910     1.3230    -0.1940 c3         1 BMI      -0.405203
     11 H1          -0.9510    -0.8530    -1.9340 h1         1 BMI       0.193032
     12 H2          -0.8840    -2.3100    -0.9380 h1         1 BMI       0.193032
     13 H3          -2.1050    -1.1110     0.9110 hc         1 BMI       0.066110
     14 H4          -3.0250    -1.2220    -0.5780 hc         1 BMI       0.066110
     15 H5          -1.4900     1.2790     0.3450 hc         1 BMI       0.018527
     16 H6          -2.3990     1.1450    -1.1590 hc         1 BMI       0.018527
     17 H7           0.9580     0.7570    -1.7200 h5         1 BMI       0.218584
     18 H8           0.4620    -2.0070     1.4390 h4         1 BMI       0.232092
     19 H9           2.8050    -0.5770     1.8430 h4         1 BMI       0.242629
     20 H10         -3.6060     0.8900     1.6680 hc         1 BMI       0.104077
     21 H11         -4.5210     0.7680     0.1560 hc         1 BMI       0.104077
     22 H12         -3.7500     2.2960     0.6040 hc         1 BMI       0.104077
     23 H13          3.1060     1.8950    -1.1040 h1         1 BMI       0.185937
     24 H14          3.3410     2.0020     0.6590 h1         1 BMI       0.185937
     25 H15          4.2320     0.7770    -0.2930 h1         1 BMI       0.185937
@<TRIPOS>BOND
     1     1     3 1   
     2     1     6 1   
     3     1     7 1   
     4     2     6 1   
     5     2     8 1   
     6     2    10 1   
     7     3     4 1   
     8     3    11 1   
     9     3    12 1   
    10     4     5 1   
    11     4    13 1   
    12     4    14 1   
    13     5     9 1   
    14     5    15 1   
    15     5    16 1   
    16     6    17 1   
    17     7     8 1   
    18     7    18 1   
    19     8    19 1   
    20     9    20 1   
    21     9    21 1   
    22     9    22 1   
    23    10    23 1   
    24    10    24 1   
    25    10    25 1   
@<TRIPOS>SUBSTRUCTURE
     1 BMI         1 TEMP              0 ****  ****    0 ROOT
