@<TRIPOS>MOLECULE
HMI
   31    31     1     0     0
SMALL
resp


@<TRIPOS>ATOM
      1 N1           1.5470    -0.8920    -0.1620 na         1 HMI       0.077857
      2 N2           2.8520     0.8490    -0.0230 na         1 HMI       0.223828
      3 C1          -0.8350    -1.6910    -0.0630 c3         1 HMI       0.056960
      4 C2          -1.5190    -0.3610    -0.4040 c3         1 HMI       0.017250
      5 C3           0.5580    -1.8700    -0.6770 c3         1 HMI      -0.233952
      6 C4          -2.9390    -0.2600     0.1710 c3         1 HMI      -0.114090
      7 C5          -3.6340     1.0670    -0.1610 c3         1 HMI       0.147968
      8 C6           2.0030     0.1820    -0.8160 cc         1 HMI      -0.093870
      9 C7           2.1220    -0.9100     1.0950 cc         1 HMI      -0.148754
     10 C8          -5.0520     1.1580     0.4130 c3         1 HMI      -0.208492
     11 C9           2.9400     0.1770     1.1820 cd         1 HMI      -0.246637
     12 C10          3.5760     2.0790    -0.3770 c3         1 HMI      -0.319498
     13 H1          -0.7730    -1.8210     1.0260 hc         1 HMI       0.031210
     14 H2          -1.4410    -2.5270    -0.4340 hc         1 HMI       0.031210
     15 H3          -1.5600    -0.2440    -1.4970 hc         1 HMI       0.007440
     16 H4          -0.9200     0.4790    -0.0220 hc         1 HMI       0.007440
     17 H5           0.5310    -1.7420    -1.7630 h1         1 HMI       0.155589
     18 H6           0.9650    -2.8630    -0.4690 h1         1 HMI       0.155589
     19 H7          -3.5440    -1.0940    -0.2130 hc         1 HMI       0.037337
     20 H8          -2.9000    -0.3880     1.2620 hc         1 HMI       0.037337
     21 H9          -3.0280     1.9000     0.2240 hc         1 HMI      -0.020195
     22 H10         -3.6710     1.1930    -1.2520 hc         1 HMI      -0.020195
     23 H11          1.7330     0.4640    -1.8220 h5         1 HMI       0.244783
     24 H12          1.9090    -1.6890     1.8110 h4         1 HMI       0.251475
     25 H13          3.5740     0.5230     1.9850 h4         1 HMI       0.260128
     26 H14         -5.0450     1.0700     1.5060 hc         1 HMI       0.056685
     27 H15         -5.5200     2.1150     0.1590 hc         1 HMI       0.056685
     28 H16         -5.6910     0.3600     0.0180 hc         1 HMI       0.056685
     29 H17          4.6510     1.8930    -0.3370 h1         1 HMI       0.164076
     30 H18          3.2960     2.3770    -1.3870 h1         1 HMI       0.164076
     31 H19          3.3080     2.8720     0.3240 h1         1 HMI       0.164076
@<TRIPOS>BOND
     1     1     5 1   
     2     1     8 2   
     3     1     9 1   
     4     2     8 1   
     5     2    11 1   
     6     2    12 1   
     7     3     4 1   
     8     3     5 1   
     9     3    13 1   
    10     3    14 1   
    11     4     6 1   
    12     4    15 1   
    13     4    16 1   
    14     5    17 1   
    15     5    18 1   
    16     6     7 1   
    17     6    19 1   
    18     6    20 1   
    19     7    10 1   
    20     7    21 1   
    21     7    22 1   
    22     8    23 1   
    23     9    11 2   
    24     9    24 1   
    25    10    26 1   
    26    10    27 1   
    27    10    28 1   
    28    11    25 1   
    29    12    29 1   
    30    12    30 1   
    31    12    31 1   
@<TRIPOS>SUBSTRUCTURE
     1 HMI         1 TEMP              0 ****  ****    0 ROOT
